version 2
1
2
.dc V1 0 3.3 100m{return}.kicad adjustpaths{return}.save all{return}.probe alli
2
2
I(MQ3:d)
 
1
V(Vout)
 
